STAAD SPACE
START JOB INFORMATION
END JOB INFORMATION
INPUT WIDTH 79
UNIT METER KN
JOINT COORDINATES
1 0 0 0; 2 0 0 4.00001; 3 0 0 8.00002; 4 0 0 12; 5 0 0 16;
6 5.00001 0 0; 7 5.00001 0 4.00001; 8 5.00001 0 8.00002; 9 5.00001 0 12;
10 5.00001 0 16; 11 10 0 0; 12 10 0 4.00001; 13 10 0 8.00002;
14 10 0 12; 15 10 0 16; 16 15 0 0; 17 15 0 4.00001; 18 15 0 8.00002;
19 15 0 12; 20 15 0 16; 21 20 0 0; 22 20 0 4.00001; 23 20 0 8.00002;
24 20 0 12; 25 20 0 16; 26 25.0001 0 0; 27 25.0001 0 4.00001;
28 25.0001 0 8.00002; 29 25.0001 0 12; 30 25.0001 0 16; 31 30.0001 0 0;
32 30.0001 0 4.00001; 33 30.0001 0 8.00002; 34 30.0001 0 12;
35 30.0001 0 16; 36 35.0001 0 0; 37 35.0001 0 4.00001;
38 35.0001 0 8.00002; 39 35.0001 0 12; 40 35.0001 0 16; 41 40.0001 0 0;
42 40.0001 0 4.00001; 43 40.0001 0 8.00002; 44 40.0001 0 12;
45 40.0001 0 16; 46 45.0001 0 0; 47 45.0001 0 4.00001;
48 45.0001 0 8.00002; 49 45.0001 0 12; 50 45.0001 0 16; 51 50.0001 0 0;
52 50.0001 0 4.00001; 53 50.0001 0 8.00002; 54 50.0001 0 12;
55 50.0001 0 16; 56 55.0001 0 0; 57 55.0001 0 4.00001;
58 55.0001 0 8.00002; 59 55.0001 0 12; 60 55.0001 0 16; 61 60.0001 0 0;
62 60.0001 0 4.00001; 63 60.0001 0 8.00002; 64 60.0001 0 12;
65 60.0001 0 16; 66 65.0001 0 0; 67 65.0001 0 4.00001;
68 65.0001 0 8.00002; 69 65.0001 0 12; 70 65.0001 0 16; 71 70.0001 0 0;
72 70.0001 0 4.00001; 73 70.0001 0 8.00002; 74 70.0001 0 12;
# ... 53 like lines cut
MEMBER INCIDENCES
1 1 2; 2 2 3; 3 3 4; 4 4 5; 5 1 6; 6 2 7; 7 3 8; 8 4 9; 9 5 10; 10 6 7;
11 7 8; 12 8 9; 13 9 10; 14 6 11; 15 7 12; 16 8 13; 17 9 14; 18 10 15;
19 11 12; 20 12 13; 21 13 14; 22 14 15; 23 11 16; 24 12 17; 25 13 18;
26 14 19; 27 15 20; 28 16 17; 29 17 18; 30 18 19; 31 19 20; 32 16 21;
33 17 22; 34 18 23; 35 19 24; 36 20 25; 37 21 22; 38 22 23; 39 23 24;
40 24 25; 41 21 26; 42 22 27; 43 23 28; 44 24 29; 45 25 30; 46 26 27;
47 27 28; 48 28 29; 49 29 30; 50 26 31; 51 27 32; 52 28 33; 53 29 34;
54 30 35; 55 31 32; 56 32 33; 57 33 34; 58 34 35; 59 31 36; 60 32 37;
61 33 38; 62 34 39; 63 35 40; 64 36 37; 65 37 38; 66 38 39; 67 39 40;
68 36 41; 69 37 42; 70 38 43; 71 39 44; 72 40 45; 73 41 42; 74 42 43;
75 43 44; 76 44 45; 77 41 46; 78 42 47; 79 43 48; 80 44 49; 81 45 50;
82 46 47; 83 47 48; 84 48 49; 85 49 50; 86 46 51; 87 47 52; 88 48 53;
89 49 54; 90 50 55; 91 51 52; 92 52 53; 93 53 54; 94 54 55; 95 51 56;
96 52 57; 97 53 58; 98 54 59; 99 55 60; 100 56 57; 101 57 58; 102 58 59;
103 59 60; 104 56 61; 105 57 62; 106 58 63; 107 59 64; 108 60 65;
109 61 62; 110 62 63; 111 63 64; 112 64 65; 113 61 66; 114 62 67;
115 63 68; 116 64 69; 117 65 70; 118 66 67; 119 67 68; 120 68 69;
121 69 70; 122 66 71; 123 67 72; 124 68 73; 125 69 74; 126 70 75;
127 71 72; 128 72 73; 129 73 74; 130 74 75; 131 71 76; 132 72 77;
133 73 78; 134 74 79; 135 75 80; 136 76 77; 137 77 78; 138 78 79;
# ... 72 like lines cut
ELEMENT INCIDENCES SHELL
534 1 201 205 5;
START GROUP DEFINITION
MEMBER
_BEAM 1 TO 365 524 TO 533
_PILLAR 366 TO 421
_CABLE 422 TO 441 453 TO 492 504 TO 523
FLOOR
ELEMENT
_PLATE 534
END GROUP DEFINITION
ELEMENT PROPERTY
534 THICKNESS 0.3
DEFINE MATERIAL START
ISOTROPIC CONCRETE
E 2.17184e+07
POISSON 0.17
DENSITY 23.5615
ALPHA 5.5e-06
DAMP 0.05
TYPE CONCRETE
STRENGTH FCU 27578.9
END DEFINE MATERIAL
MEMBER PROPERTY
1 TO 441 453 TO 492 504 TO 533 PRIS YD 0.3
CONSTANTS
MATERIAL CONCRETE ALL
SUPPORTS
210 TO 213 FIXED
LOAD 1 LOADTYPE Dead  TITLE DL
SELFWEIGHT Y -1 LIST ALL
LOAD 2 LOADTYPE Live  TITLE LL
ELEMENT LOAD
534 PR LY -15
PERFORM ANALYSIS
PARAMETER 1
CODE INDIAN
CHECK CODE ALL
PARAMETER 2
CODE INDIAN
STEEL TAKE OFF LIST ALL
FINISH
